### 
### Created by X-TOOL on Wed Jan  1 15:39:37 2020
### 

@<TRIPOS>MOLECULE
6mu3_ligand
   87    90     1     0     0
SMALL
GAST_HUCK


@<TRIPOS>ATOM
     1 C1            3.194   -3.753   -4.237 C.3 1 BMA 0.1854
     2 C2            3.337   -2.875   -2.985 C.3 1 BMA 0.1343
     3 C3            2.069   -2.020   -2.833 C.3 1 BMA 0.1206
     4 C4            1.763   -1.245   -4.124 C.3 1 BMA 0.1123
     5 C5            1.680   -2.232   -5.305 C.3 1 BMA 0.1130
     6 C6            1.435   -1.555   -6.657 C.3 1 BMA 0.0730
     7 O1            4.428   -4.396   -4.469 O.3 1 BMA -0.3649
     8 O2            4.420   -1.968   -3.130 O.3 1 BMA -0.3841
     9 O3            2.147   -1.132   -1.712 O.3 1 BMA -0.3400
    10 O4            0.524   -0.557   -4.000 O.3 1 BMA -0.3865
    11 O5            2.912   -2.974   -5.382 O.3 1 BMA -0.3407
    12 O6            2.324   -0.444   -6.801 O.3 1 BMA -0.3924
    13 C1            1.144   -1.502   -0.730 C.3 1 MAN 0.1888
    14 C2            1.034   -0.364    0.325 C.3 1 MAN 0.1406
    15 C3            2.296   -0.327    1.201 C.3 1 MAN 0.1144
    16 C4            2.605   -1.714    1.792 C.3 1 MAN 0.1119
    17 C5            2.683   -2.763    0.668 C.3 1 MAN 0.1130
    18 C6            2.867   -4.177    1.185 C.3 1 MAN 0.0730
    19 O2           -0.048   -0.632    1.218 O.3 1 MAN -0.3377
    20 O3            2.209    0.646    2.246 O.3 1 MAN -0.3864
    21 O4            3.848   -1.677    2.456 O.3 1 MAN -0.3865
    22 O5            1.460   -2.743   -0.102 O.3 1 MAN -0.3405
    23 O6            2.908   -5.059    0.061 O.3 1 MAN -0.3924
    24 C1           -0.945    0.497    1.243 C.3 1 MAN 0.1889
    25 C2           -1.976    0.262    2.382 C.3 1 MAN 0.1406
    26 C3           -2.948   -0.842    1.976 C.3 1 MAN 0.1144
    27 C4           -3.620   -0.506    0.641 C.3 1 MAN 0.1119
    28 C5           -2.575   -0.294   -0.444 C.3 1 MAN 0.1130
    29 C6           -3.214    0.202   -1.730 C.3 1 MAN 0.0730
    30 O2           -2.782    1.431    2.561 O.3 1 MAN -0.3378
    31 O3           -3.955   -1.051    2.948 O.3 1 MAN -0.3864
    32 O4           -4.465   -1.573    0.249 O.3 1 MAN -0.3865
    33 O5           -1.598    0.701   -0.026 O.3 1 MAN -0.3405
    34 O6           -2.195    0.716   -2.581 O.3 1 MAN -0.3924
    35 C1           -2.382    2.180    3.732 C.3 1 MAN 0.1885
    36 C2           -3.446    3.282    3.910 C.3 1 MAN 0.1341
    37 C3           -3.296    4.317    2.801 C.3 1 MAN 0.1141
    38 C4           -1.867    4.883    2.777 C.3 1 MAN 0.1119
    39 C5           -0.875    3.737    2.579 C.3 1 MAN 0.1130
    40 C6            0.566    4.185    2.663 C.3 1 MAN 0.0730
    41 O2           -3.253    3.995    5.134 O.3 1 MAN -0.3841
    42 O3           -4.248    5.365    2.925 O.3 1 MAN -0.3864
    43 O4           -1.726    5.798    1.704 O.3 1 MAN -0.3865
    44 O5           -1.070    2.735    3.608 O.3 1 MAN -0.3405
    45 O6            0.847    4.496    4.028 O.3 1 MAN -0.3924
    46 H1            2.395   -4.494   -4.081 H 1 BMA 0.0935
    47 H2            3.486   -3.510   -2.099 H 1 BMA 0.0671
    48 H3            1.229   -2.708   -2.650 H 1 BMA 0.0651
    49 H4            2.566   -0.518   -4.310 H 1 BMA 0.0647
    50 H5            0.850   -2.928   -5.112 H 1 BMA 0.0647
    51 H6            0.394   -1.202   -6.707 H 1 BMA 0.0584
    52 H7            1.616   -2.277   -7.467 H 1 BMA 0.0584
    53 H8            5.103   -3.743   -4.605 H 1 BMA 0.2126
    54 H9            4.473   -1.415   -2.359 H 1 BMA 0.2101
    55 H10           0.572    0.052   -3.272 H 1 BMA 0.2100
    56 H11           2.171   -0.025   -7.639 H 1 BMA 0.2095
    57 H12           0.175   -1.610   -1.239 H 1 BMA 0.0938
    58 H13           0.887    0.600   -0.183 H 1 BMA 0.0675
    59 H14           3.137   -0.043    0.552 H 1 BMA 0.0648
    60 H15           1.813   -1.993    2.503 H 1 BMA 0.0647
    61 H16           3.532   -2.510    0.016 H 1 BMA 0.0647
    62 H17           2.025   -4.447    1.840 H 1 BMA 0.0584
    63 H18           3.808   -4.249    1.749 H 1 BMA 0.0584
    64 H19           1.515    0.401    2.848 H 1 BMA 0.2100
    65 H20           3.814   -1.033    3.154 H 1 BMA 0.2100
    66 H21           2.093   -4.991   -0.423 H 1 BMA 0.2095
    67 H22          -0.364    1.402    1.474 H 1 BMA 0.0938
    68 H23          -1.454    0.001    3.314 H 1 BMA 0.0675
    69 H24          -2.377   -1.775    1.860 H 1 BMA 0.0648
    70 H25          -4.216    0.411    0.758 H 1 BMA 0.0647
    71 H26          -2.066   -1.250   -0.635 H 1 BMA 0.0647
    72 H27          -3.939    0.996   -1.500 H 1 BMA 0.0584
    73 H28          -3.730   -0.631   -2.231 H 1 BMA 0.0584
    74 H29          -4.477   -0.262    3.037 H 1 BMA 0.2100
    75 H30          -5.124   -1.717    0.919 H 1 BMA 0.2100
    76 H31          -1.752    1.433   -2.144 H 1 BMA 0.2095
    77 H32          -2.392    1.515    4.609 H 1 BMA 0.0938
    78 H33          -4.450    2.831    3.886 H 1 BMA 0.0671
    79 H34          -3.478    3.810    1.842 H 1 BMA 0.0648
    80 H35          -1.659    5.394    3.728 H 1 BMA 0.0647
    81 H36          -1.054    3.289    1.590 H 1 BMA 0.0647
    82 H37           0.717    5.076    2.037 H 1 BMA 0.0584
    83 H38           1.229    3.378    2.319 H 1 BMA 0.0584
    84 H39          -3.909    4.678    5.208 H 1 BMA 0.2101
    85 H40          -4.164    5.957    2.187 H 1 BMA 0.2100
    86 H41          -1.906    5.353    0.884 H 1 BMA 0.2100
    87 H42           0.709    3.722    4.563 H 1 BMA 0.2095
@<TRIPOS>BOND
     1    1    2 1  
     2    1    7 1  
     3    1   11 1  
     4    2    3 1  
     5    2    8 1  
     6    3    4 1  
     7    3    9 1  
     8    4    5 1  
     9    4   10 1  
    10    5    6 1  
    11    5   11 1  
    12    6   12 1  
    13    9   13 1  
    14   13   14 1  
    15   13   22 1  
    16   14   15 1  
    17   14   19 1  
    18   15   16 1  
    19   15   20 1  
    20   16   17 1  
    21   16   21 1  
    22   17   18 1  
    23   17   22 1  
    24   18   23 1  
    25   19   24 1  
    26   24   25 1  
    27   24   33 1  
    28   25   26 1  
    29   25   30 1  
    30   26   27 1  
    31   26   31 1  
    32   27   28 1  
    33   27   32 1  
    34   28   29 1  
    35   28   33 1  
    36   29   34 1  
    37   30   35 1  
    38   35   36 1  
    39   35   44 1  
    40   36   37 1  
    41   36   41 1  
    42   37   38 1  
    43   37   42 1  
    44   38   39 1  
    45   38   43 1  
    46   39   40 1  
    47   39   44 1  
    48   40   45 1  
    49    1   46 1  
    50    2   47 1  
    51    3   48 1  
    52    4   49 1  
    53    5   50 1  
    54    6   51 1  
    55    6   52 1  
    56    7   53 1  
    57    8   54 1  
    58   10   55 1  
    59   12   56 1  
    60   13   57 1  
    61   14   58 1  
    62   15   59 1  
    63   16   60 1  
    64   17   61 1  
    65   18   62 1  
    66   18   63 1  
    67   20   64 1  
    68   21   65 1  
    69   23   66 1  
    70   24   67 1  
    71   25   68 1  
    72   26   69 1  
    73   27   70 1  
    74   28   71 1  
    75   29   72 1  
    76   29   73 1  
    77   31   74 1  
    78   32   75 1  
    79   34   76 1  
    80   35   77 1  
    81   36   78 1  
    82   37   79 1  
    83   38   80 1  
    84   39   81 1  
    85   40   82 1  
    86   40   83 1  
    87   41   84 1  
    88   42   85 1  
    89   43   86 1  
    90   45   87 1  
@<TRIPOS>SUBSTRUCTURE
     1 BMA         1

